%mem=50GB
%nprocshared=16
#p opt pop=ChelpG wB97XD/6-311g**

OBT_2m_eth_opt_freq.gjf

0 1
 C                  4.67289800    0.13104900   -0.00003400
 C                  5.34614900   -1.07858600   -0.00008300
 C                  6.77424600   -0.98940700   -0.00002500
 C                  7.23452900    0.29133200    0.00009600
 S                  5.90124300    1.49661200   -0.00005800
 O                  4.61168700   -2.26042100   -0.00014900
 H                  7.42765700   -1.84725900   -0.00001900
 C                  3.26892000    0.37991500   -0.00001200
 C                  2.59208100    1.58883800    0.00001800
 C                  1.17454800    1.50684100    0.00000500
 C                  0.67832600    0.22339300   -0.00003700
 S                  2.04578200   -0.98711900   -0.00000100
 O                  3.32894000    2.76801300    0.00004400
 H                  0.53010200    2.37162300    0.00000800
 C                  5.32132000   -3.54090400   -0.00010900
 H                  5.95467700   -3.60094100    0.88944300
 H                  5.95475700   -3.60095300   -0.88960400
 C                  2.62211300    4.05110300    0.00007400
 H                  1.98883000    4.11158400   -0.88934400
 H                  1.98883100    4.11154500    0.88949600
 H                  8.25207900    0.63786400    0.00019300
 C                 -3.26900500   -0.37998400   -0.00006100
 C                 -2.59216600   -1.58891300   -0.00011100
 C                 -1.17463300   -1.50691500   -0.00012700
 C                 -0.67840700   -0.22347000   -0.00008700
 S                 -2.04586300    0.98704200   -0.00016400
 O                 -3.32900700   -2.76809700   -0.00012500
 H                 -0.53018600   -2.37169800   -0.00013300
 C                 -4.67297000   -0.13104800    0.00002800
 C                 -5.34610600    1.07864500    0.00009500
 C                 -6.77420900    0.98960200    0.00005800
 C                 -7.23461500   -0.29109300   -0.00008700
 S                 -5.90144500   -1.49650100    0.00019000
 O                 -4.61151400    2.26040000    0.00011900
 H                 -7.42753900    1.84751700    0.00003500
 C                 -2.62215500   -4.05117500    0.00003100
 H                 -1.98890500   -4.11153200    0.88947900
 H                 -1.98883800   -4.11171300   -0.88935900
 C                 -5.32099700    3.54096500    0.00017800
 H                 -5.95440900    3.60111000   -0.88932500
 H                 -5.95436300    3.60105700    0.88972000
 H                 -8.25219700   -0.63752600   -0.00020800
 C                 -3.68048400   -5.13699300    0.00009800
 H                 -4.31255600   -5.05465100    0.88352100
 H                 -4.31249600   -5.05482200   -0.88338200
 C                  4.26580400   -4.62963400   -0.00014800
 H                  3.63393500   -4.54840100    0.88358400
 H                  3.63401000   -4.54841500   -0.88393400
 C                  3.68046300    5.13690200    0.00009800
 H                  4.31250200    5.05461500    0.88354900
 H                  4.31250400    5.05465100   -0.88335500
 C                 -4.26535300    4.62957000    0.00018700
 H                 -3.63351200    4.54824200    0.88393000
 H                 -3.63354900    4.54829700   -0.88358600
 O                  4.88600061   -5.91814328   -0.00011133
 O                 -3.06300902   -6.42680873    0.00024206
 O                  3.06301127    6.42672887    0.00012419
 O                 -4.88539811    5.91815219    0.00024070
 C                  3.87842468   -6.93287938   -0.00128629
 H                  3.26858075   -6.83097591    0.87198690
 H                  3.26980114   -6.83016449   -0.87531549
 H                  4.34297203   -7.89677550   -0.00140946
 C                 -4.07272291   -7.43941407    0.00311952
 H                 -3.61021248   -8.40428910    0.00259016
 H                 -4.67973199   -7.33533564    0.87810961
 H                 -4.68374414   -7.33630086   -0.86918818
 C                 -3.88268477    6.93037765   -0.12168365
 H                 -3.21120820    6.86915834    0.70914209
 H                 -3.33849338    6.78558237   -1.03151334
 H                 -4.34807105    7.89379145   -0.13390978
 C                  4.07274374    7.43931642    0.00273119
 H                  4.68334796    7.33637312   -0.86988852
 H                  3.61024962    8.40419941    0.00262208
 H                  4.68016743    7.33504682    0.87741074

