! Structure optimisation of oxy-bi-thiophene monomer with methyl group 
%mem=10GB
%nprocshared=16
#p opt pop=ChelpG wB97XD/6-311g**

OBT_opt_freq.gjf

0 1
 C                     9.46700000    8.46500000    4.89200000
 C                     9.21700000    9.80700000    4.86500000
 C                     9.76800000   10.50900000    5.97400000
 C                    10.43800000    9.70500000    6.84900000
 S                    10.58400000    8.07200000    6.19900000
 O                     8.59900000   10.43100000    3.81700000
 H                     9.65600000   11.56500000    6.11400000
 C                     8.85400000    7.43900000    3.92100000
 C                     9.10300000    6.09800000    3.94700000
 C                     8.55300000    5.39500000    2.83800000
 C                     7.88300000    6.19900000    1.96300000
 S                     7.73700000    7.83200000    2.61400000
 O                     9.78500000    5.57400000    5.01000000
 H                     8.66400000    4.34000000    2.69800000
 C                     8.90700000   11.00700000    2.61500000
 H                     9.38700000   10.25500000    2.02400000
 H                     9.59900000   11.79800000    2.81700000
 H                     8.06600000   11.39800000    2.08200000
 C                     9.61000000    5.35100000    6.34700000
 H                    10.44500000    4.88900000    6.83200000
 H                     9.41500000    6.30000000    6.79900000
 H                     8.74900000    4.72400000    6.44800000
 H                     7.50200000    5.88500000    1.01300000
 H                    10.81800000   10.02000000    7.79800000

