! Structure optimisation of oxy-bi-thiophene three monomer with methyl group 
%mem=50GB
%nprocshared=8
#p opt freq=Raman b3lyp/6-311g

OBT_3m_opt_freq.gjf

0 1
 C                       -6.41023052   17.63457179    0.00000000
 C                       -5.03720001   17.47493093    0.00000000
 C                       -4.32743313   18.65215016    0.00000000
 C                       -5.04635330   19.80724271    0.00000000
 S                       -6.80236444   19.42622577    0.00000000
 O                       -4.50940124   16.18705770    0.00000000
 H                       -3.24887323   18.63125701    0.00000000
 C                       -7.43354828   16.63537573    0.00000000
 C                       -8.80657880   16.79501658    0.00000000
 C                       -9.56871434   15.58350743    0.00000000
 C                       -8.79742550   14.46270481    0.00000000
 S                       -7.04042845   14.84388897    0.00000000
 O                       -9.33536349   18.08272259    0.00000000
 H                      -10.64709373   15.55476911    0.00000000
 C                       -3.06583395   16.02416670    0.00000000
 H                       -2.61992485   16.46291273    0.89400000
 H                       -2.62009208   16.46389865   -0.89500000
 H                       -2.90312561   14.95126783   -0.00100000
 C                      -10.77794486   18.24578081    0.00000000
 H                      -10.94163911   19.31851246    0.00000000
 H                      -11.22368673   17.80604886   -0.89500000
 H                      -11.22368673   17.80604886    0.89400000
 C                      -11.17993724   11.10033837    0.00000000
 C                       -9.83165348   10.79566001    0.00000000
 C                       -8.96369680   11.90939381    0.00000000
 C                       -9.59284932   13.11573211    0.00000000
 S                      -11.37941159   12.92352322    0.00000000
 O                       -9.44373505    9.45898193    0.00000000
 H                       -7.88983576   11.80667834    0.00000000
 C                      -12.30366422   10.21557306    0.00000000
 C                      -13.65194798   10.52025142    0.00000000
 C                      -14.53853949    9.39661424    0.00000000
 C                      -13.89075214    8.20017931    0.00000000
 S                      -12.10319176    8.39244969    0.00000000
 O                      -14.04086452   11.85686801    0.00000000
 H                      -15.61386449    9.48266160    0.00000000
 C                       -8.02565957    9.14357435    0.00000000
 H                       -7.53564146    9.53243840    0.89400000
 H                       -7.53570295    9.53343651   -0.89500000
 H                       -7.97791333    8.05945891   -0.00100000
 C                      -15.45794189   12.17233707    0.00000000
 H                      -15.50668624   13.25639103    0.00000000
 H                      -15.94789851   11.78247491   -0.89500000
 H                      -15.94789851   11.78247491    0.89400000
 H                      -14.30969815    7.21054845    0.00100000
 C                       -1.58721275   24.10922599    0.00000000
 C                       -0.23040213   23.84509925    0.00000000
 C                        0.62211003   24.99480705    0.00000000
 C                       -0.06124930   26.17128698    0.00000000
 S                       -1.84124733   25.92561235    0.00000000
 O                        0.19740883   22.52064964    0.00000000
 H                        1.69953110   24.94103115    0.00000000
 C                       -2.68391401   23.19117459    0.00000000
 C                       -4.04072463   23.45530132    0.00000000
 C                       -4.89323680   22.30559353    0.00000000
 C                       -4.20987746   21.12911360    0.00000000
 S                       -2.42888362   21.37487960    0.00000000
 O                       -4.46953141   24.77965957    0.00000000
 H                       -5.97065786   22.35936942    0.00000000
 C                        1.62430142   22.24789052    0.00000000
 H                        2.10244316   22.65126809    0.89400000
 H                        2.10235179   22.65226391   -0.89500000
 H                        1.70452250   21.16569341   -0.00100000
 C                       -5.89542818   25.05251006    0.00000000
 H                       -5.97664508   26.13461579    0.00000000
 H                       -6.37347855   24.64813667   -0.89500000
 H                       -6.37347855   24.64813667    0.89400000
 H                        0.32784434   27.17303103    0.00100000

