%mem=50GB
%nprocshared=8
#p opt pop=MKUFF b3lyp/6-311g(d,p)

OBT_1m_14sc_Sn_opt.gjf

0 1
 C                  0.48905770    1.15446659   -0.94585601
 C                  1.73505770    1.76146659   -0.94585601
 C                  1.69305770    3.18446659   -0.94585601
 C                  0.41505770    3.66046659   -0.94585601
 S                 -0.75894230    2.39346659   -0.94585601
 O                  2.86005770    0.99046659   -0.94485601
 H                  2.56605770    3.82046659   -0.94485601
 C                  0.18505770   -0.25753341   -0.94585601
 C                 -1.06094230   -0.86453341   -0.94585601
 C                 -1.01994230   -2.28753341   -0.94585601
 C                  0.25905770   -2.76353341   -0.94585601
 S                  1.43305770   -1.49753341   -0.94485601
 O                 -2.18594230   -0.09353341   -0.94585601
 H                 -1.89194230   -2.92453341   -0.94585601
 C                  4.13744506    1.63311899   -0.93146119
 H                  4.23612912    2.24872877   -1.80105078
 H                  4.22256988    2.23926277   -0.05382603
 C                  5.24854509    0.56679416   -0.92861563
 H                  5.15401270   -0.04447984   -0.05551328
 H                  5.15923057   -0.04370567   -1.80280832
 C                  6.62424681    1.25891069   -0.92420078
 H                  7.39624020    0.51802246   -0.92090744
 H                  6.71929381    1.86916652   -1.79795926
 C                  6.75205804    2.13903995    0.33303301
 H                  6.37638816    3.11853496    0.12241091
 H                  6.18753532    1.70458773    1.13144729
 C                  8.23304357    2.23471468    0.74428501
 H                  8.80901501    2.60133095   -0.07957748
 H                  8.33044215    2.90399277    1.57342937
 C                  8.74487909    0.83947594    1.14793494
 H                  8.01037490    0.35174193    1.75416849
 H                  8.92499512    0.25741178    0.26835576
 C                 10.05461892    0.98394733    1.94499805
 H                 10.45370639    0.01345779    2.15423291
 H                  9.85807896    1.49460732    2.86450793
 C                 11.07284118    1.79022946    1.11751236
 H                 10.84898322    2.83367808    1.19498879
 H                 11.01781574    1.48880291    0.09232251
 C                 12.49244658    1.52855423    1.65402572
 H                 12.52670685    1.75732429    2.69872209
 H                 12.74573729    0.49959633    1.50573733
 C                 13.49819294    2.41855128    0.90038157
 H                 13.24875918    3.44766855    1.05400587
 H                 13.45926546    2.19435406   -0.14514235
 H                 14.52634070    2.61875296    0.82736471
 C                 -2.71750943   -1.00326908   -1.91266385
 H                 -1.96942454   -1.22190753   -2.64578473
 H                 -3.01452933   -1.90832559   -1.42527089
 C                 -3.93916248   -0.36570338   -2.60017661
 H                 -3.61033467    0.25790910   -3.40508638
 H                 -4.57546766   -1.13612509   -2.98288551
 C                 -4.71827751    0.48315753   -1.57840612
 H                 -4.35906716    1.49073502   -1.60400950
 H                 -4.57737633    0.07908215   -0.59770742
 C                 -6.21717891    0.46342623   -1.93125920
 H                 -6.74520446    1.13033899   -1.28217031
 H                 -6.34875572    0.77501592   -2.94639437
 C                 -6.76674541   -0.96461704   -1.75727916
 H                 -6.45321806   -1.57034496   -2.58171490
 H                 -6.39309012   -1.38197618   -0.84563609
 C                 -8.30534096   -0.92017928   -1.70881252
 H                 -8.68998881   -1.91796916   -1.67191567
 H                 -8.61941195   -0.38440601   -0.83748800
 C                 -8.83830315   -0.21078300   -2.96750558
 H                 -8.75322227    0.84852399   -2.84288635
 H                 -8.26647089   -0.51686303   -3.81851843
 C                -10.31672886   -0.58547070   -3.18073444
 H                -10.87513676   -0.34988159   -2.29893038
 H                -10.39358101   -1.63352224   -3.38218350
 C                -10.88085444    0.20918013   -4.37316573
 H                -10.81589973    1.25697345   -4.16625985
 H                -10.31423204   -0.01657069   -5.25229917
 C                -12.35397858   -0.17929598   -4.59809146
 H                -12.91852937    0.03636720   -3.71510120
 H                -12.74909009    0.38080818   -5.41971803
 H                -12.41966968   -1.08472541   -5.12571086
 Br                 0.90219839   -4.47002724   -1.47900594
 Br                -0.09658049    5.28376358   -1.79032818

