%mem=50GB
%nprocshared=16
#p opt b3lyp/lanl2dz

OBT_1m_14sc_Sn_opt.gjf

0 1
 C                  0.15200000    0.70600000   -0.00100000
 C                  1.39800000    1.31300000   -0.00100000
 C                  1.35600000    2.73600000   -0.00100000
 C                  0.07800000    3.21200000   -0.00100000
 S                 -1.09600000    1.94500000   -0.00100000
 O                  2.52300000    0.54200000    0.00000000
 H                  2.22900000    3.37200000    0.00000000
 C                 -0.15200000   -0.70600000   -0.00100000
 C                 -1.39800000   -1.31300000   -0.00100000
 C                 -1.35700000   -2.73600000   -0.00100000
 C                 -0.07800000   -3.21200000   -0.00100000
 S                  1.09600000   -1.94600000    0.00000000
 O                 -2.52300000   -0.54200000   -0.00100000
 H                 -2.22900000   -3.37300000   -0.00100000
 C                  3.80038736    1.18465240    0.01339482
 H                  3.89907142    1.80026218   -0.85619477
 H                  3.88551218    1.79079618    0.89102998
 C                  4.91148739    0.11832757    0.01624038
 H                  4.81695500   -0.49294643    0.88934273
 H                  4.82217287   -0.49217226   -0.85795231
 C                  6.28718911    0.81044410    0.02065523
 H                  7.05918250    0.06955587    0.02394857
 H                  6.38223611    1.42069993   -0.85310325
 C                  6.41500034    1.69057336    1.27788902
 H                  6.03933046    2.67006837    1.06726692
 H                  5.85047762    1.25612114    2.07630330
 C                  7.89598587    1.78624809    1.68914102
 H                  8.47195731    2.15286436    0.86527853
 H                  7.99338445    2.45552618    2.51828538
 C                  8.40782139    0.39100935    2.09279095
 H                  7.67331720   -0.09672466    2.69902450
 H                  8.58793742   -0.19105481    1.21321177
 C                  9.71756122    0.53548074    2.88985406
 H                 10.11664869   -0.43500880    3.09908892
 H                  9.52102126    1.04614073    3.80936394
 C                 10.73578348    1.34176287    2.06236837
 H                 10.51192552    2.38521149    2.13984480
 H                 10.68075804    1.04033632    1.03717852
 C                 12.15538888    1.08008764    2.59888173
 H                 12.18964915    1.30885770    3.64357810
 H                 12.40867959    0.05112974    2.45059334
 C                 13.16113524    1.97008469    1.84523758
 H                 12.91170148    2.99920196    1.99886188
 H                 13.12220776    1.74588747    0.79971366
 C                 14.58190575    1.70159826    2.37526228
 H                 14.83432057    0.67429019    2.21456103
 H                 14.61881328    1.91834759    3.42242872
 C                 15.58626778    2.59971051    1.62943972
 H                 15.33464377    3.62704093    1.79123457
 H                 15.54840286    2.38389966    0.58211364
 C                 17.00727702    2.32984093    2.15812032
 H                 17.70469139    2.95628943    1.64229528
 H                 17.04426830    2.54240983    3.20614041
 C                 17.37129058    0.85241373    1.92083779
 H                 16.98288146    0.25656059    2.72021091
 H                 16.94829673    0.52527156    0.99403997
 H                 18.43561201    0.74888540    1.88339743
 C                 -3.05456713   -1.45173567   -0.96780784
 H                 -2.30648224   -1.67037412   -1.70092872
 H                 -3.35158703   -2.35679218   -0.48041488
 C                 -4.27622018   -0.81416997   -1.65532060
 H                 -3.94739237   -0.19055749   -2.46023037
 H                 -4.91252536   -1.58459168   -2.03802950
 C                 -5.05533521    0.03469094   -0.63355011
 H                 -4.69612486    1.04226843   -0.65915349
 H                 -4.91443403   -0.36938444    0.34714859
 C                 -6.55423661    0.01495964   -0.98640319
 H                 -7.08226216    0.68187240   -0.33731430
 H                 -6.68581342    0.32654933   -2.00153836
 C                 -7.10380311   -1.41308363   -0.81242315
 H                 -6.79027576   -2.01881155   -1.63685889
 H                 -6.73014782   -1.83044277    0.09921992
 C                 -8.64239866   -1.36864587   -0.76395651
 H                 -9.02704651   -2.36643575   -0.72705966
 H                 -8.95646965   -0.83287260    0.10736801
 C                 -9.17536085   -0.65924959   -2.02264957
 H                 -9.09027997    0.40005740   -1.89803034
 H                 -8.60352859   -0.96532962   -2.87366242
 C                -10.65378656   -1.03393729   -2.23587843
 H                -11.21219446   -0.79834818   -1.35407437
 H                -10.73063871   -2.08198883   -2.43732749
 C                -11.21791214   -0.23928646   -3.42830972
 H                -11.15295743    0.80850686   -3.22140384
 H                -10.65128974   -0.46503728   -4.30744316
 C                -12.69103628   -0.62776257   -3.65323545
 H                -13.25558707   -0.41209939   -2.77024519
 H                -13.08614779   -0.06765841   -4.47486202
 C                -12.78296358   -2.13276353   -3.96647893
 H                -11.94753336   -2.42344634   -4.56852531
 H                -12.77428150   -2.68855028   -3.05218920
 C                -14.08978149   -2.41948056   -4.72911927
 H                -14.06721309   -1.92074495   -5.67550896
 H                -14.92154484   -2.06327900   -4.15798866
 C                -14.23196316   -3.93666776   -4.95166671
 H                -14.24063571   -4.43664247   -4.00570156
 H                -13.40735500   -4.29047662   -5.53453947
 C                -15.54848198   -4.22504432   -5.69679568
 H                -15.54092589   -3.72290612   -6.64162378
 H                -15.64599009   -5.27896564   -5.85377348
 H                -16.37325369   -3.87362663   -5.11270902
 Sn                -0.21800000    5.33100000    0.00000000
 C                  0.50500000    6.35400000    1.77200000
 H                  1.56600000    6.47500000    1.70600000
 H                  0.04100000    7.31600000    1.84300000
 H                  0.26500000    5.77700000    2.64000000
 C                 -2.38800000    5.33100000    0.00000000
 H                 -2.74500000    4.82900000   -0.87500000
 H                 -2.74500000    4.82500000    0.87300000
 H                 -2.74500000    6.34000000    0.00200000
 C                  0.50500000    6.35400000   -1.77200000
 H                  0.08100000    7.33600000   -1.81500000
 H                  1.57200000    6.42800000   -1.73100000
 H                  0.21900000    5.80400000   -2.64300000
 Sn                 0.34600000   -5.31000000    0.00000000
 C                  1.73500000   -6.13200000   -1.45100000
 H                  2.73800000   -5.96700000   -1.11800000
 H                  1.56200000   -7.18300000   -1.55400000
 H                  1.58900000   -5.65200000   -2.39600000
 C                  1.40900000   -5.90200000    1.79700000
 H                  1.37600000   -6.96700000    1.89600000
 H                  2.42700000   -5.58100000    1.73100000
 H                  0.94700000   -5.45000000    2.65000000
 C                 -1.41200000   -6.58200000    0.00100000
 H                 -2.00800000   -6.36600000    0.86200000
 H                 -1.98400000   -6.40000000   -0.88500000
 H                 -1.10900000   -7.60800000    0.02500000

