%mem=50GB
%nprocshared=8
#p pop=ChelpG b3lyp/6-311g(d,p)

O2G_2m_7sc_pop.gjf

0 1
 C                  0.38203300   -4.61341000    0.00012000
 C                  1.67340200   -5.12307700    0.00031100
 C                  1.74204600   -6.54413600    0.00039300
 C                  0.50372300   -7.11842500    0.00026000
 S                 -0.76598900   -5.94785100    0.00008300
 O                  2.73507600   -4.26705900    0.00039400
 H                  2.66154200   -7.11093400    0.00053000
 C                 -0.02846400   -3.23419400   -0.00001900
 C                 -1.31925900   -2.72240300   -0.00021200
 C                 -1.39192100   -1.31018200   -0.00030800
 C                 -0.15374500   -0.70336400   -0.00019100
 S                  1.12196200   -1.90194000    0.00003700
 O                 -2.37870400   -3.57961000   -0.00029200
 H                 -2.31790800   -0.75382300   -0.00046300
 C                  4.04704200   -4.82217900    0.00052200
 H                  4.20633300   -5.44014700   -0.89002200
 H                  4.20619500   -5.44006600    0.89114700
 C                 -3.69220900   -3.02651800   -0.00045900
 H                 -3.85178500   -2.40877600    0.89005400
 H                 -3.85160200   -2.40888100   -0.89107800
 H                  0.26167300   -8.16972900    0.00027300
 C                  0.02846400    3.23419400   -0.00041500
 C                  1.31925900    2.72240400   -0.00029200
 C                  1.39192100    1.31018200   -0.00018800
 C                  0.15374500    0.70336400   -0.00023600
 S                 -1.12196200    1.90194100   -0.00034900
 O                  2.37870300    3.57961000   -0.00029200
 H                  2.31790800    0.75382300   -0.00010600
 C                 -0.38203300    4.61341000   -0.00055100
 C                 -1.67340200    5.12307700   -0.00064700
 C                 -1.74204600    6.54413600   -0.00075200
 C                 -0.50372300    7.11842500   -0.00073800
 S                  0.76598900    5.94785100   -0.00063700
 O                 -2.73507600    4.26705900   -0.00069500
 H                 -2.66154200    7.11093400   -0.00083400
 C                  3.69220900    3.02651800   -0.00028100
 H                  3.85167900    2.40878000   -0.89081600
 H                  3.85170800    2.40887700    0.89031600
 C                 -4.04704200    4.82217900   -0.00002900
 H                 -4.20585000    5.44000300    0.89069900
 H                 -4.20667700    5.44020900   -0.89047000
 H                 -0.26167300    8.16972900   -0.00079600
 C                  4.66597800    4.19159000   -0.00035500
 H                  4.50195700    4.81596100   -0.88957900
 H                  4.50194300    4.81608000    0.88878400
 C                  5.02220200   -3.65813600    0.00054700
 H                  4.85855200   -3.03384800   -0.88880200
 H                  4.85839900   -3.03375800    0.88980400
 C                 -4.66597800   -4.19159000   -0.00049100
 H                 -4.50186100   -4.81607200   -0.88962000
 H                 -4.50203900   -4.81597000    0.88874300
 C                 -5.02220200    3.65813600    0.00024600
 H                 -4.85873700    3.03382800   -0.88912400
 H                 -4.85821400    3.03377700    0.88948200
 O                  6.32234000   -4.21482100    0.00068700
 O                  5.96590800    3.63485100   -0.00030800
 O                 -5.96590800   -3.63485100   -0.00065300
 O                 -6.32234000    4.21482100    0.00064900
 C                  7.35326300   -3.24245700    0.00072000
 H                  7.28713700   -2.59977000   -0.88817000
 H                  7.28698600   -2.59967100    0.88952700
 C                  6.99730400    4.60675100   -0.00037700
 H                  6.93124100    5.24944200   -0.88929300
 H                  6.93123000    5.24958000    0.88843800
 C                 -7.35326300    3.24245700    0.00103100
 H                 -7.28734900    2.59967500   -0.88780600
 H                 -7.28677400    2.59976500    0.88989000
 C                 -6.99730400   -4.60675100   -0.00070400
 H                 -6.93132500   -5.24946400    0.88820200
 H                 -6.93114700   -5.24955900   -0.88952800
 C                  8.67971800   -3.98133900    0.00087300
 H                  8.74344700   -4.62637200   -0.88796200
 H                  8.74329800   -4.62627100    0.88979200
 C                  8.32364100    3.86768700   -0.00031100
 H                  8.38748700    3.22269900    0.88848500
 H                  8.38749800    3.22256100   -0.88900600
 C                 -8.67971800    3.98133800    0.00142500
 H                 -8.74366700    4.62627000   -0.88746800
 H                 -8.74307800    4.62637300    0.89028600
 C                 -8.32364100   -3.86768700   -0.00087600
 H                 -8.38758100   -3.22258200    0.88782800
 H                 -8.38740300   -3.22267800   -0.88966300
 O                  9.70712200   -3.01048800    0.00090400
 O                  9.35044800    4.83914400   -0.00038200
 O                 -9.70712100    3.01048800    0.00182200
 O                 -9.35044800   -4.83914400   -0.00092700
 C                 11.00107200   -3.57791500    0.00103800
 H                 11.17084700   -4.19772700   -0.89115300
 H                 11.71510700   -2.75391400    0.00102900
 H                 11.17072000   -4.19759700    0.89334300
 C                 10.64485200    4.27264100   -0.00034200
 H                 11.35807600    5.09734300   -0.00042700
 H                 10.81486600    3.65295500    0.89186600
 H                 10.81484600    3.65278800   -0.89243700
 C                -11.00107200    3.57791500    0.00222200
 H                -11.17108200    4.19761100   -0.89000400
 H                -11.71510600    2.75391300    0.00250700
 H                -11.17048500    4.19771100    0.89449200
 C                -10.64485300   -4.27264100   -0.00108600
 H                -10.81476800   -3.65291900   -0.89328800
 H                -11.35807600   -5.09734300   -0.00111300
 H                -10.81494500   -3.65282400    0.89101500

