%mem=50GB
%nprocshared=8
#p pop=ChelpG b3lyp/6-311g**

O3G_1m_0sc_pop.pdb

0 1
 C                       -5.70000000    0.66800000   -0.05100000
 C                       -4.47100000    1.30800000   -0.05100000
 C                       -4.55000000    2.73000000   -0.05100000
 C                       -5.84200000    3.17200000   -0.05100000
 S                       -6.98100000    1.87400000   -0.05100000
 O                       -3.32500000    0.56800000   -0.05100000
 H                       -3.69500000    3.38900000   -0.05100000
 C                       -5.96500000   -0.75100000   -0.05100000
 C                       -7.19400000   -1.39100000   -0.05100000
 C                       -7.11400000   -2.81400000   -0.05100000
 C                       -5.82300000   -3.25500000   -0.05100000
 S                       -4.68400000   -1.95700000   -0.05100000
 O                       -8.34000000   -0.65200000   -0.05100000
 H                       -7.97000000   -3.47300000   -0.05100000
 C                       -2.07800000    1.25800000   -0.05100000
 H                       -1.98400000    1.88900000    0.83900000
 H                       -1.98400000    1.88900000   -0.94200000
 C                       -0.98700000    0.20300000   -0.05100000
 H                       -1.08500000   -0.43600000    0.83800000
 H                       -1.08500000   -0.43600000   -0.94000000
 O                        0.24900000    0.89100000   -0.05100000
 C                        1.37400000    0.03100000   -0.05100000
 H                        1.37500000   -0.61600000    0.83800000
 H                        1.37500000   -0.61600000   -0.94000000
 C                        2.61700000    0.90400000   -0.05100000
 H                        2.61600000    1.55100000    0.83800000
 H                        2.61600000    1.55100000   -0.94000000
 O                        3.73900000    0.04300000   -0.05100000
 C                        4.97700000    0.73100000   -0.05100000
 H                        5.07100000    1.37000000    0.83700000
 H                        5.07200000    1.37000000   -0.94000000
 C                        6.08100000   -0.31100000   -0.05100000
 H                        5.98500000   -0.95200000   -0.93900000
 H                        5.98500000   -0.95200000    0.83800000
 O                        7.31600000    0.37800000   -0.05100000
 C                        8.43100000   -0.48900000   -0.05100000
 H                        8.44300000   -1.13200000   -0.94300000
 H                        9.32500000    0.13400000   -0.05100000
 H                        8.44300000   -1.13200000    0.84200000
 C                       -9.53100000   -1.28700000   -0.05100000
 H                       -9.01400000   -1.66100000    0.83900000
 H                       -9.01500000   -1.66100000   -0.94200000
 C                      -10.73600000   -0.36100000   -0.04500000
 H                      -10.70800000    0.28200000    0.84400000
 H                      -10.71500000    0.28400000   -0.93400000
 O                      -11.88400000   -1.18700000   -0.04000000
 C                      -13.10200000   -0.46100000   -0.03500000
 H                      -13.17200000    0.18000000    0.85500000
 H                      -13.17900000    0.18100000   -0.92300000
 C                      -14.23600000   -1.47000000   -0.03100000
 H                      -14.15700000   -2.11400000    0.85700000
 H                      -14.16500000   -2.11300000   -0.92100000
 O                      -15.45000000   -0.74300000   -0.02600000
 C                      -16.60100000   -1.56800000   -0.02100000
 H                      -16.61700000   -2.21500000    0.86600000
 H                      -16.62600000   -2.21400000   -0.91100000
 C                      -17.81700000   -0.65900000   -0.01600000
 H                      -17.79800000   -0.01100000   -0.90300000
 H                      -17.79000000   -0.01300000    0.87400000
 O                      -18.96500000   -1.48500000   -0.01100000
 C                      -20.17100000   -0.75000000   -0.00500000
 H                      -20.26100000   -0.11400000   -0.89700000
 H                      -20.98900000   -1.47200000   -0.00300000
 H                      -20.25300000   -0.11400000    0.88800000
 H                       -5.98300000    4.21200000   -0.05100000
 H                       -5.31600000   -4.17400000   -0.05100000

