%mem=50GB
%nprocshared=16
#p opt b3lyp/6-311g(d,p) pop=chelpg

O3G_4m_0sce_opt_pop.gjf

0 1
 C                  3.73602208   -1.69602890    0.00000000
 C                  3.11902208   -0.45102890    0.00000000
 C                  1.70302208   -0.45902890    0.00000000
 C                  1.13902208   -1.71702890    0.00000000
 S                  2.44402208   -2.99802890    0.00000000
 O                  3.92002208    0.68497110    0.00000000
 H                  1.10402208    0.43797110    0.00000000
 C                  5.12002208   -2.00802890    0.00000000
 C                  5.73702208   -3.25202890    0.00000000
 C                  7.15302208   -3.24402890    0.00000000
 C                  7.71602208   -1.98602890    0.00000000
 S                  6.41202208   -0.70502890    0.00000000
 O                  4.93602208   -4.38802890    0.00000000
 H                  7.75302208   -4.14102890    0.00000000
 C                  5.57502208   -5.69402890    0.00000000
 H                  4.75902208   -6.40802890    0.00000000
 H                  6.18602208   -5.83102890   -0.89400000
 H                  6.18602208   -5.83102890    0.89500000
 C                 11.68702208   -1.59102890    0.00000000
 C                 11.07402208   -0.34902890    0.00000000
 C                  9.65602208   -0.35502890    0.00000000
 C                  9.09202208   -1.61102890    0.00000000
 S                 10.39602208   -2.89202890    0.00000000
 O                 11.87502208    0.78797110    0.00000000
 H                  9.05802208    0.54297110    0.00000000
 C                 13.07602208   -1.90902890    0.00000000
 C                 13.68602208   -3.15202890    0.00000000
 C                 15.11602208   -3.13802890    0.00000000
 C                 15.64202208   -1.88302890    0.00000000
 S                 14.37302208   -0.61002890    0.00000000
 O                 12.88802208   -4.29202890    0.00000000
 H                 15.72402208   -4.02902890    0.00000000
 C                 11.23802208    2.09397110    0.00000000
 H                 10.62702208    2.23197110    0.89500000
 H                 10.62702208    2.23197110   -0.89500000
 H                 12.05502208    2.80697110    0.00000000
 C                 13.53002208   -5.59502890    0.00000000
 H                 12.71602208   -6.31202890    0.00000000
 H                 14.14102208   -5.73202890   -0.89500000
 H                 14.14102208   -5.73202890    0.89500000
 H                 16.67602208   -1.58902890    0.00000000
 C                -12.17197792   -1.89902890    0.00000000
 C                -12.78197792   -0.65602890    0.00000000
 C                -14.21197792   -0.67002890    0.00000000
 C                -14.73797792   -1.92502890    0.00000000
 S                -13.46897792   -3.19802890    0.00000000
 O                -11.98397792    0.48397110    0.00000000
 H                -14.81997792    0.22097110    0.00000000
 C                -10.78297792   -2.21702890    0.00000000
 C                -10.16997792   -3.45902890    0.00000000
 C                 -8.75197792   -3.45302890    0.00000000
 C                 -8.18797792   -2.19702890    0.00000000
 S                 -9.49197792   -0.91602890    0.00000000
 O                -10.97097792   -4.59602890    0.00000000
 H                 -8.15397792   -4.35102890    0.00000000
 H                -15.77197792   -2.21902890    0.00000000
 C                 -4.21597792   -1.80002890    0.00000000
 C                 -4.83297792   -0.55602890    0.00000000
 C                 -6.24897792   -0.56402890    0.00000000
 C                 -6.81197792   -1.82202890    0.00000000
 S                 -5.50797792   -3.10302890    0.00000000
 O                 -4.03197792    0.57997110    0.00000000
 H                 -6.84897792    0.33297110    0.00000000
 C                 -2.83197792   -2.11202890    0.00000000
 C                 -2.21497792   -3.35702890    0.00000000
 C                 -0.79897792   -3.34902890    0.00000000
 C                 -0.23497792   -2.09102890    0.00000000
 S                 -1.53997792   -0.81002890    0.00000000
 O                 -3.01597792   -4.49302890    0.00000000
 H                 -0.19997792   -4.24602890    0.00000000
 C                 -4.67097792    1.88597110    0.00000000
 H                 -5.28197792    2.02297110    0.89500000
 H                 -5.28197792    2.02297110   -0.89500000
 H                 -3.85497792    2.59997110    0.00000000
 C                -10.31047200   -5.76365649    0.00000000
 H                 -9.83137318   -6.18361997    0.89000000
 H                 -9.83137318   -6.18361997   -0.89100000
 C                -11.21111108   -6.98514871    0.00000000
 H                -11.85716211   -6.97237924    0.88900000
 H                -11.85716211   -6.97237924   -0.88900000
 O                -10.36490252   -8.11762215    0.00000000
 C                -11.06861395   -9.34786083    0.00000000
 H                -11.70849631   -9.43389899    0.88900000
 H                -11.70849631   -9.43389899   -0.88900000
 C                -10.03807643  -10.46381666    0.00000000
 H                 -9.39626026  -10.37665583    0.88900000
 H                 -9.39626026  -10.37665583   -0.88900000
 O                -10.74203710  -11.69006312    0.00000000
 C                 -9.89564161  -12.82553073    0.00000000
 H                 -9.24983982  -12.83430797    0.88800000
 H                 -9.24877945  -12.83524372   -0.88900000
 C                -10.78156018  -14.05812730    0.00000000
 H                -11.42942040  -14.04847661   -0.88800000
 H                -11.42942040  -14.04847661    0.88900000
 O                 -9.93429126  -15.19153648    0.00000000
 C                -10.64667255  -16.41129502    0.00000000
 H                -11.28281302  -16.50912293   -0.89200000
 H                 -9.91016485  -17.21496498    0.00000000
 H                -11.28281302  -16.50912293    0.89300000
 C                -13.05866751    1.31199458    0.00000000
 H                -13.40060607    0.77284709    0.89000000
 H                -13.40060607    0.77284709   -0.89100000
 C                -12.04344704    2.44021105    0.00000000
 H                -11.40172041    2.36581397    0.88900000
 H                -11.40172041    2.36581397   -0.88900000
 O                -12.77693429    3.64995874    0.00000000
 C                -11.95760788    4.80690698    0.00000000
 H                -11.31151529    4.83049428    0.88900000
 H                -11.31151529    4.83049428   -0.88900000
 C                -12.87509758    6.01634184    0.00000000
 H                -13.52219390    5.99175828    0.88900000
 H                -13.52219390    5.99175828   -0.88900000
 O                -12.05578985    7.16829012    0.00000000
 C                -12.78826589    8.38103405    0.00000000
 H                -13.43100372    8.45243489    0.88800000
 H                -13.43099999    8.45343488   -0.88900000
 C                -11.78699678    9.52230271    0.00000000
 H                -11.14326269    9.44989814   -0.88800000
 H                -11.14326269    9.44989814    0.88900000
 O                -12.52048402   10.73205040    0.00000000
 C                -11.69420248   11.87697258    0.00000000
 H                -11.05206504   11.91257473   -0.89200000
 H                -12.35095255   12.74843133    0.00000000
 H                -11.05206504   11.91257473    0.89300000
 C                  3.21490712    1.92818339    0.04621791
 H                  2.58696402    2.01433432   -0.81585255
 H                  2.61360926    1.96452261    0.93053705
 H                  3.91654485    2.73592863    0.05855185
 C                 -2.22566219   -5.68373959   -0.05009097
 H                 -1.62239882   -5.67450144   -0.93376963
 H                 -1.59410798   -5.72918396    0.81244836
 H                 -2.86912492   -6.53848439   -0.06643228

