%mem=50GB
%nprocshared=16
#p opt Pop=CHelpG b3lyp/6-311g**

O3G_4m_0sc_opt_pop.gjf

0 1
 C                        3.28400000    0.20800000    0.00000000
 C                        2.66700000    1.45300000    0.00000000
 C                        1.25100000    1.44500000    0.00000000
 C                        0.68700000    0.18700000    0.00000000
 S                        1.99200000   -1.09400000    0.00000000
 O                        3.46800000    2.58900000    0.00000000
 H                        0.65200000    2.34200000    0.00000000
 C                        4.66800000   -0.10400000    0.00000000
 C                        5.28500000   -1.34800000    0.00000000
 C                        6.70100000   -1.34000000    0.00000000
 C                        7.26400000   -0.08200000    0.00000000
 S                        5.96000000    1.19900000    0.00000000
 O                        4.48400000   -2.48400000    0.00000000
 H                        7.30100000   -2.23700000    0.00000000
 C                        5.12300000   -3.79000000    0.00000000
 H                        4.30700000   -4.50400000    0.00000000
 H                        5.73400000   -3.92700000   -0.89400000
 H                        5.73400000   -3.92700000    0.89500000
 C                       11.23500000    0.31300000    0.00000000
 C                       10.62200000    1.55500000    0.00000000
 C                        9.20400000    1.54900000    0.00000000
 C                        8.64000000    0.29300000    0.00000000
 S                        9.94400000   -0.98800000    0.00000000
 O                       11.42300000    2.69200000    0.00000000
 H                        8.60600000    2.44700000    0.00000000
 C                       12.62400000   -0.00500000    0.00000000
 C                       13.23400000   -1.24800000    0.00000000
 C                       14.66400000   -1.23400000    0.00000000
 C                       15.19000000    0.02100000    0.00000000
 S                       13.92100000    1.29400000    0.00000000
 O                       12.43600000   -2.38800000    0.00000000
 H                       15.27200000   -2.12500000    0.00000000
 C                       10.78600000    3.99800000    0.00000000
 H                       10.17500000    4.13600000    0.89500000
 H                       10.17500000    4.13600000   -0.89500000
 H                       11.60300000    4.71100000    0.00000000
 C                       13.07800000   -3.69100000    0.00000000
 H                       12.26400000   -4.40800000    0.00000000
 H                       13.68900000   -3.82800000   -0.89500000
 H                       13.68900000   -3.82800000    0.89500000
 H                       16.22400000    0.31500000    0.00000000
 C                      -12.62400000    0.00500000    0.00000000
 C                      -13.23400000    1.24800000    0.00000000
 C                      -14.66400000    1.23400000    0.00000000
 C                      -15.19000000   -0.02100000    0.00000000
 S                      -13.92100000   -1.29400000    0.00000000
 O                      -12.43600000    2.38800000    0.00000000
 H                      -15.27200000    2.12500000    0.00000000
 C                      -11.23500000   -0.31300000    0.00000000
 C                      -10.62200000   -1.55500000    0.00000000
 C                       -9.20400000   -1.54900000    0.00000000
 C                       -8.64000000   -0.29300000    0.00000000
 S                       -9.94400000    0.98800000    0.00000000
 O                      -11.42300000   -2.69200000    0.00000000
 H                       -8.60600000   -2.44700000    0.00000000
 C                      -13.07800000    3.69100000    0.00000000
 H                      -13.68900000    3.82800000    0.89500000
 H                      -13.68900000    3.82800000   -0.89500000
 H                      -12.26400000    4.40800000    0.00000000
 C                      -10.78600000   -3.99800000    0.00000000
 H                      -11.60300000   -4.71100000    0.00000000
 H                      -10.17500000   -4.13600000   -0.89500000
 H                      -10.17500000   -4.13600000    0.89500000
 H                      -16.22400000   -0.31500000    0.00000000
 C                       -4.66800000    0.10400000    0.00000000
 C                       -5.28500000    1.34800000    0.00000000
 C                       -6.70100000    1.34000000    0.00000000
 C                       -7.26400000    0.08200000    0.00000000
 S                       -5.96000000   -1.19900000    0.00000000
 O                       -4.48400000    2.48400000    0.00000000
 H                       -7.30100000    2.23700000    0.00000000
 C                       -3.28400000   -0.20800000    0.00000000
 C                       -2.66700000   -1.45300000    0.00000000
 C                       -1.25100000   -1.44500000    0.00000000
 C                       -0.68700000   -0.18700000    0.00000000
 S                       -1.99200000    1.09400000    0.00000000
 O                       -3.46800000   -2.58900000    0.00000000
 H                       -0.65200000   -2.34200000    0.00000000
 C                       -5.12300000    3.79000000    0.00000000
 H                       -5.73400000    3.92700000    0.89500000
 H                       -5.73400000    3.92700000   -0.89500000
 H                       -4.30700000    4.50400000    0.00000000
 C                       -2.48200000   -3.51100000    0.00000000
 H                       -2.03000000   -3.96000000    0.89000000
 H                       -2.03000000   -3.96000000   -0.89100000
 C                       -3.45700000   -4.67400000    0.00000000
 H                       -4.10100000   -4.62100000    0.88900000
 H                       -4.10100000   -4.62100000   -0.88900000
 O                       -2.68300000   -5.85700000    0.00000000
 C                       -3.46200000   -7.04100000    0.00000000
 H                       -4.10600000   -7.08700000    0.88900000
 H                       -4.10600000   -7.08700000   -0.88900000
 C                       -2.50300000   -8.21900000    0.00000000
 H                       -1.85700000   -8.17200000    0.88900000
 H                       -1.85700000   -8.17200000   -0.88900000
 O                       -3.28200000   -9.39900000    0.00000000
 C                       -2.50800000  -10.58500000    0.00000000
 H                       -1.86400000  -10.63400000    0.88800000
 H                       -1.86300000  -10.63500000   -0.88900000
 C                       -3.46900000  -11.76000000    0.00000000
 H                       -4.11500000  -11.71000000   -0.88800000
 H                       -4.11500000  -11.71000000    0.88900000
 O                       -2.69400000  -12.94400000    0.00000000
 C                       -3.48100000  -14.11700000    0.00000000
 H                       -4.12200000  -14.17500000   -0.89200000
 H                       -2.79600000  -14.96500000    0.00000000
 H                       -4.12200000  -14.17500000    0.89300000
 C                        2.61500000    3.64100000    0.00000000
 H                        2.03600000    3.37200000    0.89000000
 H                        2.03600000    3.37200000   -0.89100000
 C                        3.62600000    4.77300000    0.00000000
 H                        4.26800000    4.70100000    0.88900000
 H                        4.26800000    4.70100000   -0.88900000
 O                        2.88800000    5.98000000    0.00000000
 C                        3.70300000    7.14000000    0.00000000
 H                        4.34900000    7.16600000    0.88900000
 H                        4.34900000    7.16600000   -0.88900000
 C                        2.78100000    8.34600000    0.00000000
 H                        2.13400000    8.31900000    0.88900000
 H                        2.13400000    8.31900000   -0.88900000
 O                        3.59600000    9.50100000    0.00000000
 C                        2.85900000   10.71100000    0.00000000
 H                        2.21600000   10.78000000    0.88800000
 H                        2.21600000   10.78100000   -0.88900000
 C                        3.85600000   11.85600000    0.00000000
 H                        4.50000000   11.78600000   -0.88800000
 H                        4.50000000   11.78600000    0.88900000
 O                        3.11800000   13.06300000    0.00000000
 C                        3.94000000   14.21100000    0.00000000
 H                        4.58200000   14.24900000   -0.89200000
 H                        3.28000000   15.08000000    0.00000000
 H                        4.58200000   14.24900000    0.89300000

