%mem=50GB
%nprocshared=8
#p opt b3lyp/6-311g(d,p) pop=chelpg

O3G_4m_0sce_opt_pop.gjf

0 1
 C                  3.73602208   -1.69602890    0.00000000
 C                  3.11902208   -0.45102890    0.00000000
 C                  1.70302208   -0.45902890    0.00000000
 C                  1.13902208   -1.71702890    0.00000000
 S                  2.44402208   -2.99802890    0.00000000
 O                  3.92002208    0.68497110    0.00000000
 H                  1.10402208    0.43797110    0.00000000
 C                  5.12002208   -2.00802890    0.00000000
 C                  5.73702208   -3.25202890    0.00000000
 C                  7.15302208   -3.24402890    0.00000000
 C                  7.71602208   -1.98602890    0.00000000
 S                  6.41202208   -0.70502890    0.00000000
 O                  4.93602208   -4.38802890    0.00000000
 H                  7.75302208   -4.14102890    0.00000000
 C                  5.57502208   -5.69402890    0.00000000
 H                  4.75902208   -6.40802890    0.00000000
 H                  6.18602208   -5.83102890   -0.89400000
 H                  6.18602208   -5.83102890    0.89500000
 C                 11.68702208   -1.59102890    0.00000000
 C                 11.07402208   -0.34902890    0.00000000
 C                  9.65602208   -0.35502890    0.00000000
 C                  9.09202208   -1.61102890    0.00000000
 S                 10.39602208   -2.89202890    0.00000000
 O                 11.87502208    0.78797110    0.00000000
 H                  9.05802208    0.54297110    0.00000000
 C                 13.07602208   -1.90902890    0.00000000
 C                 13.68602208   -3.15202890    0.00000000
 C                 15.11602208   -3.13802890    0.00000000
 C                 15.64202208   -1.88302890    0.00000000
 S                 14.37302208   -0.61002890    0.00000000
 O                 12.88802208   -4.29202890    0.00000000
 H                 15.72402208   -4.02902890    0.00000000
 C                 11.23802208    2.09397110    0.00000000
 H                 10.62702208    2.23197110    0.89500000
 H                 10.62702208    2.23197110   -0.89500000
 H                 12.05502208    2.80697110    0.00000000
 C                 13.53002208   -5.59502890    0.00000000
 H                 12.71602208   -6.31202890    0.00000000
 H                 14.14102208   -5.73202890   -0.89500000
 H                 14.14102208   -5.73202890    0.89500000
 H                 16.67602208   -1.58902890    0.00000000
 C                -12.17197792   -1.89902890    0.00000000
 C                -12.78197792   -0.65602890    0.00000000
 C                -14.21197792   -0.67002890    0.00000000
 C                -14.73797792   -1.92502890    0.00000000
 S                -13.46897792   -3.19802890    0.00000000
 O                -11.98397792    0.48397110    0.00000000
 H                -14.81997792    0.22097110    0.00000000
 C                -10.78297792   -2.21702890    0.00000000
 C                -10.16997792   -3.45902890    0.00000000
 C                 -8.75197792   -3.45302890    0.00000000
 C                 -8.18797792   -2.19702890    0.00000000
 S                 -9.49197792   -0.91602890    0.00000000
 O                -10.97097792   -4.59602890    0.00000000
 H                 -8.15397792   -4.35102890    0.00000000
 H                -15.77197792   -2.21902890    0.00000000
 C                 -4.21597792   -1.80002890    0.00000000
 C                 -4.83297792   -0.55602890    0.00000000
 C                 -6.24897792   -0.56402890    0.00000000
 C                 -6.81197792   -1.82202890    0.00000000
 S                 -5.50797792   -3.10302890    0.00000000
 O                 -4.03197792    0.57997110    0.00000000
 H                 -6.84897792    0.33297110    0.00000000
 C                 -2.83197792   -2.11202890    0.00000000
 C                 -2.21497792   -3.35702890    0.00000000
 C                 -0.79897792   -3.34902890    0.00000000
 C                 -0.23497792   -2.09102890    0.00000000
 S                 -1.53997792   -0.81002890    0.00000000
 O                 -3.01597792   -4.49302890    0.00000000
 H                 -0.19997792   -4.24602890    0.00000000
 C                 -4.67097792    1.88597110    0.00000000
 H                 -5.28197792    2.02297110    0.89500000
 H                 -5.28197792    2.02297110   -0.89500000
 H                 -3.85497792    2.59997110    0.00000000
 C                  3.21490712    1.92818339    0.04621791
 H                  2.58696402    2.01433432   -0.81585255
 H                  2.61360926    1.96452261    0.93053705
 H                  3.91654485    2.73592863    0.05855185
 C                 -2.22566219   -5.68373959   -0.05009097
 H                 -1.62239882   -5.67450144   -0.93376963
 H                 -1.59410798   -5.72918396    0.81244836
 H                 -2.86912492   -6.53848439   -0.06643228
 C                -13.11674771    1.35674403    0.00000000
 H                -13.70713230    1.17486746   -0.87365150
 H                -13.70713230    1.17486746    0.87365150
 C                -12.63722830    2.82018557    0.00000000
 H                -12.04683637    3.00205944    0.87364710
 H                -12.04685086    3.00206419   -0.87365591
 C                -13.85713423    3.76009488    0.00001267
 H                -14.44854792    3.57687088    0.87268604
 H                -14.44648912    3.57956738   -0.87461333
 C                -13.37761573    5.22353400    0.00283561
 H                -12.78592386    5.40666564   -0.86966857
 H                -14.22521226    5.87658838    0.00250649
 C                -12.52978603    5.48348981    1.26188595
 H                -12.90077602    4.88922300    2.07065871
 H                -11.51076072    5.22265271    1.06579560
 C                -12.61464304    6.97415588    1.63913118
 H                -11.98648299    7.16453204    2.48415891
 H                -13.62618674    7.22324334    1.88333350
 C                -12.14771426    7.83232228    0.44869935
 H                -12.93644718    7.90337264   -0.27085067
 H                -11.29144986    7.37797468   -0.00437851
 C                -11.77798046    9.24214972    0.94597542
 H                -12.63191387    9.69319172    1.40669100
 H                -10.98343364    9.17181549    1.65917137
 C                -11.32277447   10.10404201   -0.24630356
 H                -12.10055847   10.13661655   -0.98039548
 H                -10.44177754    9.67776946   -0.67878028
 C                -11.01611807   11.53256469    0.24040457
 H                -10.66607609   12.12186197   -0.58123971
 H                -11.90595407   11.97168747    0.64073328
 H                -10.26325764   11.49668919    0.99988738
 C                -10.33026502   -5.72866683    0.00000000
 H                 -9.71564314   -5.79076412   -0.87366119
 H                 -9.71561395   -5.79074761    0.87364182
 C                -11.34125926   -6.89034262    0.00002787
 H                -11.95621307   -6.82799801   -0.87338209
 H                -11.95557877   -6.82850877    0.87392038
 C                -10.58301860   -8.23074206   -0.00063870
 H                 -9.96877851   -8.29262050   -0.87458387
 H                 -9.96798579   -8.29304099    0.87271890
 C                -11.59401219   -9.39241841   -0.00045959
 H                -12.20929651   -9.32990018   -0.87362433
 H                -12.20800097   -9.33075895    0.87367763
 C                -10.83577118  -10.73281726   -0.00168006
 H                -10.22183229  -10.79450459   -0.87585036
 H                -10.22043694  -10.79530682    0.87145155
 C                -11.84676470  -11.89449365   -0.00140556
 H                -12.46224760  -11.83187432   -0.87442310
 H                -12.46055466  -11.83293545    0.87287842
 C                -11.08852398  -13.23489233   -0.00295371
 H                -10.47474558  -13.29645675   -0.87724537
 H                -10.47302946  -13.29750468    0.87005613
 C                -12.09951748  -14.39656873   -0.00265696
 H                -12.71509277  -14.33388571   -0.87560478
 H                -12.71321490  -14.33507432    0.87169646
 C                -11.34127695  -15.73696730   -0.00438317
 H                -10.72757518  -15.79845894   -0.87873374
 H                -10.72570592  -15.79965235    0.86856751
 C                -12.35227045  -16.89864370   -0.00409454
 H                -12.96788389  -16.83592136   -0.87701263
 H                -11.82544106  -17.82995954   -0.00535887
 H                -12.96592966  -16.83718864    0.87028848

