! Population Analysis using ChelpG lookign if partial charges on the backbone change with different ethyl chain lengths or with number of monomers
%mem=50GB
%nprocshared=8
#p Pop=CHelpG b3lyp/6-311g**

OBT_2m_eth_opt_freq.gjf

0 1
 C                  4.67200000   -0.13400000    0.00000000
 C                  5.34600000    1.07500000    0.00000000
 C                  6.77300000    0.98700000    0.00000000
 C                  7.23300000   -0.29500000    0.00000000
 S                  5.89900000   -1.50000000    0.00000000
 O                  4.60800000    2.25500000    0.00000000
 H                  7.42700000    1.84500000    0.00000000
 C                  3.26800000   -0.38000000    0.00000000
 C                  2.59100000   -1.58800000    0.00000000
 C                  1.17400000   -1.50800000    0.00000000
 C                  0.67800000   -0.22400000    0.00000000
 S                  2.04600000    0.98700000    0.00000000
 O                  3.33100000   -2.76500000    0.00000000
 H                  0.53000000   -2.37300000    0.00000000
 C                  5.31700000    3.52200000    0.00000000
 H                  5.93500000    3.62700000   -0.89500000
 H                  5.93500000    3.62700000    0.89500000
 C                  2.62600000   -4.03600000    0.00000000
 H                  2.00900000   -4.14200000    0.89500000
 H                  2.00900000   -4.14200000   -0.89500000
 H                  8.25100000   -0.64200000    0.00000000
 C                 -3.26800000    0.38000000    0.00000000
 C                 -2.59100000    1.58800000    0.00000000
 C                 -1.17400000    1.50700000    0.00000000
 C                 -0.67800000    0.22300000    0.00000000
 S                 -2.04600000   -0.98700000    0.00000000
 O                 -3.33100000    2.76500000    0.00000000
 H                 -0.53000000    2.37200000    0.00000000
 C                 -4.67200000    0.13400000    0.00000000
 C                 -5.34600000   -1.07400000    0.00000000
 C                 -6.77300000   -0.98600000    0.00000000
 C                 -7.23300000    0.29500000    0.00000000
 S                 -5.89900000    1.50000000    0.00000000
 O                 -4.60900000   -2.25500000    0.00000000
 H                 -7.42700000   -1.84400000    0.00000000
 C                 -2.62500000    4.03600000    0.00000000
 H                 -2.00800000    4.14200000   -0.89400000
 H                 -2.00900000    4.14200000    0.89500000
 C                 -5.31800000   -3.52200000    0.00000000
 H                 -5.93500000   -3.62700000    0.89400000
 H                 -5.93500000   -3.62700000   -0.89500000
 H                 -8.25000000    0.64200000    0.00000000
 C                 -3.73084605    5.10777634    0.00000000
 H                 -3.28487588    6.08040513    0.00195626
 H                 -4.33682566    4.99501588   -0.87462780
 H                 -4.33918388    4.99258343    0.87267157
 C                  4.21675744    4.59952787    0.00000000
 H                  3.61019827    4.48992881   -0.87462793
 H                  3.60782762    4.48750819    0.87267179
 H                  4.66779255    5.56981830    0.00195613
 C                  3.73115778   -5.10848602    0.00000000
 H                  3.28456201   -6.08082967    0.00019557
 H                  4.33827222   -4.99501968   -0.87374908
 H                  4.33850819   -4.99477725    0.87355355
 C                 -4.21775744   -4.59952787    0.00000000
 H                 -3.61119827   -4.48992881   -0.87462793
 H                 -3.60882762   -4.48750819    0.87267179
 H                 -4.66879255   -5.56981830    0.00195613

