%mem=50GB
%nprocshared=8
#p opt b3lyp/6-311g**

B.gjf

0  1
C          -0.70600         0.15400         0.00000
C          -1.31000         1.40100        -0.00100
C          -2.73300         1.36200         0.00100
C          -3.21200         0.08600         0.00400
S          -1.94800        -1.09100         0.00400
O          -0.53600         2.52400        -0.00300
H          -3.36600         2.23700         0.00200
C           0.70600        -0.15400        -0.00200
C           1.31000        -1.40100        -0.00100
C           2.73300        -1.36300        -0.00300
C           3.21200        -0.08600        -0.00600
S           1.94900         1.09100        -0.00500
O           0.53600        -2.52400         0.00200
H           3.36800        -2.23700        -0.00300
C          -1.09600         3.82100         0.06100
H          -1.72400         3.93500         0.95200
H          -1.72600         3.93200        -0.82900
C          -0.10300         4.70100         0.05000
H           0.53400         4.58600         0.93800
H           0.53100         4.58300        -0.84000
C          -0.75500         5.95700         0.04900
H          -1.37100         6.01800        -0.82400
H          -1.32500         6.01700         0.95300
C           0.13800         7.05700         0.04600
H           0.78500         7.04000         0.93400
H           0.78200         7.03700        -0.84400
C          -0.08000         8.85000         0.02100
H          -0.70800         8.96400         0.91200
H          -0.71000         8.96100        -0.86900
C           1.00700         9.90900         0.01700
H           1.64400         9.79400         0.90500
H           1.64100         9.79100        -0.87300
O           0.35500        11.16500         0.01600
C           1.24800        12.26500         0.01300
H           1.89500        12.24800         0.90100
H           1.89200        12.24500        -0.87700
C           0.41300        13.53300         0.01200
H          -0.23300        13.55000         0.90200
H          -0.23600        13.54900        -0.87500
O           1.30500        14.63000         0.00900
C           0.65400        15.88700         0.00900
H           0.01900        16.00100         0.89800
H           0.01600        15.99900        -0.87900
C           1.72700        16.96000         0.00600
H           2.36400        16.84400        -0.88400
H           2.36700        16.84600         0.89400
O           1.07500        18.21400         0.00500
C           1.97500        19.30300         0.00200
H           2.61700        19.29600        -0.89100
H           1.37800        20.21600         0.00100
H           2.62000        19.29900         0.89300
C           1.29100        -3.73900         0.07100
H           1.92300        -3.85300         0.95800
H           1.91400        -3.84900        -0.82300
C           0.20300        -4.79800         0.07400
H          -0.42600        -4.68300         0.96700
H          -0.43500        -4.67900        -0.81200
C           0.85500        -6.05400         0.06800
H           1.47300        -6.11800         0.93800
H           1.42100        -6.11000        -0.83800
C          -0.03700        -7.15400         0.07100
H          -0.67900        -7.13700         0.96300
H          -0.68700        -7.13300        -0.81500
C           0.83600        -8.43400         0.06000
H           1.46800        -8.54800         0.94700
H           1.46000        -8.54400        -0.83400
C          -0.25200        -9.49300         0.06300
H          -0.88100        -9.37800         0.95600
H          -0.88900        -9.37400        -0.82300
O           0.40000       -10.74900         0.05700
C          -0.49200       -11.84900         0.06000
H          -1.13400       -11.83200         0.95200
H          -1.14100       -11.82800        -0.82600
C           0.34300       -13.11700         0.05300
H           0.99500       -13.13600         0.93800
H           0.98600       -13.13100        -0.83900
O          -0.55100       -14.21400         0.05500
C           0.10000       -15.47100         0.05000
H           0.74200       -15.58500         0.93600
H           0.73300       -15.58200        -0.84200
C          -0.97400       -16.54400         0.05300
H          -1.61600       -16.42600        -0.83200
H          -1.60700       -16.43000         0.94600
O          -0.32200       -17.79800         0.04700
C          -1.22100       -18.88700         0.04900
H          -1.86900       -18.87900        -0.83900
H          -0.62400       -19.80000         0.04500
H          -1.86000       -18.88200         0.94500
H          -4.24200        -0.17600         0.00600
H           4.20400         0.38400        -0.00900

