%mem=50GB
%nprocshared=8
#p opt wb97xd/6-311g(d,p)

 monomer_wb97xd.pdb

0 1
 C          -0.34600         0.34700         0.03300
 C          -1.68700         0.17000        -0.25000
 C          -2.43700         1.37700        -0.33700
 C          -1.66400         2.47600        -0.11100
 S          -0.00900         2.06400         0.20900
 O          -2.20200        -1.07900        -0.48700
 H          -3.49000         1.38700        -0.57800
 C           0.68000        -0.66200         0.16100
 C           2.01900        -0.48400         0.45500
 C           2.77000        -1.69200         0.53200
 C           2.00100        -2.78800         0.28700
 S           0.34700        -2.37700        -0.03700
 O           2.52400         0.76300         0.70900
 H           3.82100        -1.70100         0.78500
 C          -3.20000        -1.58300         0.41600
 H          -2.92300        -2.62200         0.62200
 H          -3.16400        -1.03000         1.36000
 C          -4.59600        -1.57000        -0.19700
 H          -5.23100        -2.27400         0.36400
 H          -4.52500        -1.92300        -1.22800
 O          -5.22200        -0.29700        -0.25600
 C          -5.80700         0.13200         0.96200
 H          -6.40600        -0.68200         1.39800
 H          -5.04300         0.41100         1.70300
 C          -6.67200         1.35600         0.69500
 H          -6.06300         2.12500         0.21500
 H          -7.02300         1.75000         1.66200
 O          -7.76300         1.13600        -0.17800
 C          -8.83200         0.38900         0.37400
 H          -8.55700        -0.66000         0.54300
 H          -9.15400         0.81500         1.33600
 C          -9.97800         0.44300        -0.62000
 H          -9.63900         0.05100        -1.59000
 H         -10.29200         1.48600        -0.76900
 O         -11.03500        -0.33800        -0.09500
 C         -12.16800        -0.36900        -0.93800
 H         -12.91700        -0.99200        -0.45000
 H         -12.58500         0.63600        -1.09300
 H         -11.92900        -0.80200        -1.92100
 C           3.59400         1.25000        -0.12200
 H           3.34500         2.29200        -0.34300
 H           3.61500         0.69800        -1.06600
 C           4.94500         1.21700         0.58400
 H           5.62300         1.91700         0.07400
 H           4.80700         1.56100         1.61200
 O           5.55500        -0.06100         0.67200
 C           6.20900        -0.49600        -0.51500
 H           6.68800         0.35600        -1.01000
 H           5.49000        -0.95600        -1.21000
 C           7.25500        -1.53100        -0.13100
 H           6.79400        -2.26500         0.53600
 H           7.59300        -2.06100        -1.03300
 O           8.35700        -0.97100         0.57300
 C           9.55000        -0.79700        -0.16700
 H           9.88100        -1.74700        -0.61700
 H          10.30000        -0.51300         0.57400
 C           9.48500         0.24900        -1.28800
 H          10.51200         0.40400        -1.65900
 H           8.89000        -0.12100        -2.12700
 O           8.89000         1.48300        -0.93200
 C           9.53400         2.16600         0.13000
 H           9.08700         3.16000         0.17900
 H          10.61200         2.27400        -0.05800
 H           9.38300         1.66200         1.09100
 H          -1.96000         3.51400        -0.11700
 H           2.29900        -3.82600         0.28400

