%mem=10GB
%nprocshared=8
%chk=temp.chk
# opt=modredundant b3lyp/6-311+g(d,p) geom=connectivity

Title Card Required

0 1
 C                 -0.59366300   -0.41063200   -0.00008700
 C                 -1.91733900    0.00391400   -0.00003000
 C                 -2.86398300   -1.05920700   -0.00001200
 C                 -2.25936400   -2.28460000   -0.00009600
 S                 -0.53724000   -2.16836800   -0.00024000
 H                 -3.93603800   -0.92508600    0.00004900
 H                 -2.73094300   -3.25515600   -0.00012200
 C                  0.59366300    0.41063200   -0.00008700
 C                  1.91733900   -0.00391400   -0.00002300
 S                  0.53724000    2.16836800   -0.00024500
 C                  2.86398300    1.05920700   -0.00000500
 C                  2.25936400    2.28460000   -0.00009500
 H                  3.93603800    0.92508600    0.00006200
 H                  2.73094300    3.25515600   -0.00012200
 O                 -2.20249100    1.33736900    0.00000500
 O                  2.20249100   -1.33736900    0.00002100
 C                  3.56950800   -1.72729600    0.00052100
 H                  4.08546300   -1.36397700    0.89554800
 H                  3.57058300   -2.81591600    0.00066800
 H                  4.08605100   -1.36422800   -0.89426800
 C                 -3.56950800    1.72729600    0.00053600
 H                 -4.08544300    1.36397300    0.89557200
 H                 -3.57058300    2.81591600    0.00068600
 H                 -4.08607100    1.36423200   -0.89424400

 1 2 1.5 5 1.0 8 1.5
 2 3 1.5 15 1.0
 3 4 2.0 6 1.0
 4 5 1.0 7 1.0
 5
 6
 7
 8 9 1.5 10 1.0
 9 11 1.5 16 1.0
 10 12 1.0
 11 12 2.0 13 1.0
 12 14 1.0
 13
 14
 15 21 1.0
 16 17 1.0
 17 18 1.0 19 1.0 20 1.0
 18
 19
 20
 21 22 1.0 23 1.0 24 1.0
 22
 23
 24

A 1 2 15 S 25 0.250000

